
[General]
sim-time-limit = 5000ms
simtime-resolution = 10us

[general]
network=fogsim1.net1 